# 添加了TBC相关内容
#   原SIMT栈仅处理函数调用与普通指令的执行；TBC栈处理分支指令，当TBC更新返回true时进行warp压缩；warp压缩同时进行各栈的更新。
#   与GPGPU-Sim 4.0实现相同，不进行函数指针情况的处理，即不考虑通过函数指针在call指令下进行的分支
# 测试版本：不进行warp合并，而是根据原本的active mask运行warp